
  EPA STORM WATER MANAGEMENT MODEL - VERSION 5.1 (Build 5.1.014)
  --------------------------------------------------------------

  
  ERROR 191: simulation start date comes after ending date.

  Analysis begun on:  Wed Dec 21 18:22:43 2022
  Analysis ended on:  Wed Dec 21 18:22:43 2022
  Total elapsed time: < 1 sec