
  EPA STORM WATER MANAGEMENT MODEL - VERSION 5.1 (Build 5.1.014)
  --------------------------------------------------------------

  
  ERROR 191: simulation start date comes after ending date.

  Analysis begun on:  Fri Jan  6 20:33:01 2023
  Analysis ended on:  Fri Jan  6 20:33:01 2023
  Total elapsed time: < 1 sec