
  EPA STORM WATER MANAGEMENT MODEL - VERSION 5.1 (Build 5.1.014)
  --------------------------------------------------------------

  Example 2 
  Surface Drainage System 
  
  
  *********************************************************
  NOTE: The summary statistics displayed in this report are
  based on results found at every computational time step,  
  not just on results from each reporting time step.
  *********************************************************
  
  ****************
  Analysis Options
  ****************
  Flow Units ............... CFS
  Process Models:
    Rainfall/Runoff ........ YES
    RDII ................... NO
    Snowmelt ............... NO
    Groundwater ............ NO
    Flow Routing ........... YES
    Ponding Allowed ........ NO
    Water Quality .......... NO
  Infiltration Method ...... HORTON
  Flow Routing Method ...... KINWAVE
  Starting Date ............ 01/01/2007 00:00:00
  Ending Date .............. 01/01/2007 12:00:00
  Antecedent Dry Days ...... 0.0
  Report Time Step ......... 00:01:00
  Wet Time Step ............ 00:01:00
  Dry Time Step ............ 01:00:00
  Routing Time Step ........ 15.00 sec
  
  
  **************************        Volume         Depth
  Runoff Quantity Continuity     acre-feet        inches
  **************************     ---------       -------
  Total Precipitation ......         8.843         3.669
  Evaporation Loss .........         0.000         0.000
  Infiltration Loss ........         3.792         1.573
  Surface Runoff ...........         4.915         2.039
  Final Storage ............         0.137         0.057
  Continuity Error (%) .....        -0.012
  
  
  **************************        Volume        Volume
  Flow Routing Continuity        acre-feet      10^6 gal
  **************************     ---------     ---------
  Dry Weather Inflow .......         0.000         0.000
  Wet Weather Inflow .......         4.915         1.602
  Groundwater Inflow .......         0.000         0.000
  RDII Inflow ..............         0.000         0.000
  External Inflow ..........         0.000         0.000
  External Outflow .........         4.909         1.600
  Flooding Loss ............         0.000         0.000
  Evaporation Loss .........         0.000         0.000
  Exfiltration Loss ........         0.000         0.000
  Initial Stored Volume ....         0.000         0.000
  Final Stored Volume ......         0.000         0.000
  Continuity Error (%) .....         0.103
  
  
  ********************************
  Highest Flow Instability Indexes
  ********************************
  All links are stable.
  
  
  *************************
  Routing Time Step Summary
  *************************
  Minimum Time Step           :    15.00 sec
  Average Time Step           :    15.00 sec
  Maximum Time Step           :    15.00 sec
  Percent in Steady State     :     0.00
  Average Iterations per Step :     1.08
  Percent Not Converging      :     0.00
  
  
  ***************************
  Subcatchment Runoff Summary
  ***************************
  
  ------------------------------------------------------------------------------------------------------------------------------
                            Total      Total      Total      Total     Imperv       Perv      Total       Total     Peak  Runoff
                           Precip      Runon       Evap      Infil     Runoff     Runoff     Runoff      Runoff   Runoff   Coeff
  Subcatchment                 in         in         in         in         in         in         in    10^6 gal      CFS
  ------------------------------------------------------------------------------------------------------------------------------
  S1                         3.67       0.00       0.00       1.59       2.03       0.00       2.03        0.25    17.42   0.553
  S2                         3.67       0.00       0.00       1.36       2.25       0.00       2.25        0.29    19.14   0.613
  S3                         3.67       0.00       0.00       2.22       1.41       0.00       1.41        0.14    12.26   0.385
  S4                         3.67       0.00       0.00       1.84       1.78       0.00       1.78        0.33    24.14   0.486
  S5                         3.67       0.00       0.00       0.45       3.13       0.00       3.13        0.41    22.99   0.853
  S6                         3.67       0.00       0.00       0.18       3.39       0.00       3.39        0.18    12.19   0.924
  S7                         3.67       0.00       0.00       3.67       0.00       0.00       0.00        0.00     0.00   0.000
  
  
  ******************
  Node Depth Summary
  ******************
  
  ---------------------------------------------------------------------------------
                                 Average  Maximum  Maximum  Time of Max    Reported
                                   Depth    Depth      HGL   Occurrence   Max Depth
  Node                 Type         Feet     Feet     Feet  days hr:min        Feet
  ---------------------------------------------------------------------------------
  J1                   JUNCTION     0.03     0.33  4973.33     0  00:35        0.32
  J2                   JUNCTION     0.10     0.61  4969.61     0  00:35        0.61
  J3                   JUNCTION     0.07     0.73  4973.73     0  00:35        0.72
  J4                   JUNCTION     0.07     0.72  4971.72     0  00:35        0.72
  J5                   JUNCTION     0.06     0.65  4970.45     0  00:35        0.64
  J6                   JUNCTION     0.13     1.19  4970.19     0  00:35        1.18
  J7                   JUNCTION     0.03     0.39  4971.89     0  00:35        0.38
  J8                   JUNCTION     0.13     1.19  4967.69     0  00:35        1.19
  J9                   JUNCTION     0.08     0.92  4965.72     0  00:36        0.92
  J10                  JUNCTION     0.10     0.94  4964.74     0  00:36        0.94
  J11                  JUNCTION     4.10     4.60  4967.60     0  00:37        4.60
  O1                   OUTFALL      0.22     1.88  4963.88     0  00:36        1.88
  
  
  *******************
  Node Inflow Summary
  *******************
  
  -------------------------------------------------------------------------------------------------
                                  Maximum  Maximum                  Lateral       Total        Flow
                                  Lateral    Total  Time of Max      Inflow      Inflow     Balance
                                   Inflow   Inflow   Occurrence      Volume      Volume       Error
  Node                 Type           CFS      CFS  days hr:min    10^6 gal    10^6 gal     Percent
  -------------------------------------------------------------------------------------------------
  J1                   JUNCTION     17.42    17.42     0  00:35       0.251       0.251      -0.000
  J2                   JUNCTION     19.14    19.14     0  00:35        0.29        0.29       0.000
  J3                   JUNCTION     12.26    12.26     0  00:35       0.143       0.143       0.000
  J4                   JUNCTION      0.00    12.17     0  00:35           0       0.143      -0.000
  J5                   JUNCTION      0.00    29.43     0  00:35           0       0.394       0.000
  J6                   JUNCTION      0.00    52.67     0  00:35           0       0.722       0.000
  J7                   JUNCTION     24.14    24.14     0  00:35       0.329       0.329       0.000
  J8                   JUNCTION      0.00    52.67     0  00:35           0       0.722      -0.000
  J9                   JUNCTION      0.00    52.59     0  00:36           0       0.722       0.000
  J10                  JUNCTION     22.99    74.37     0  00:36       0.407        1.13       0.000
  J11                  JUNCTION     12.19   103.82     0  00:36       0.182         1.6       0.000
  O1                   OUTFALL       0.00   103.88     0  00:36           0         1.6       0.000
  
  
  *********************
  Node Flooding Summary
  *********************
  
  No nodes were flooded.
  
  
  ***********************
  Outfall Loading Summary
  ***********************
  
  -----------------------------------------------------------
                         Flow       Avg       Max       Total
                         Freq      Flow      Flow      Volume
  Outfall Node           Pcnt       CFS       CFS    10^6 gal
  -----------------------------------------------------------
  O1                    99.55      4.97    103.88       1.600
  -----------------------------------------------------------
  System                99.55      4.97    103.88       1.600
  
  
  ********************
  Link Flow Summary
  ********************
  
  -----------------------------------------------------------------------------
                                 Maximum  Time of Max   Maximum    Max/    Max/
                                  |Flow|   Occurrence   |Veloc|    Full    Full
  Link                 Type          CFS  days hr:min    ft/sec    Flow   Depth
  -----------------------------------------------------------------------------
  C1                   CONDUIT     17.31     0  00:35      7.99    0.01    0.11
  C2                   CONDUIT     18.20     0  00:37      4.07    0.26    0.60
  C3                   CONDUIT     12.17     0  00:35     11.10    0.22    0.32
  C4                   CONDUIT     12.12     0  00:35      5.75    0.01    0.11
  C5                   CONDUIT     29.20     0  00:36      5.54    0.04    0.22
  C6                   CONDUIT     24.00     0  00:35      8.95    0.01    0.13
  C7                   CONDUIT     52.67     0  00:35     18.30    0.25    0.34
  C8                   CONDUIT     52.59     0  00:36      9.22    0.04    0.23
  C9                   CONDUIT     52.12     0  00:36      6.03    0.07    0.30
  C10                  CONDUIT     74.31     0  00:36      8.10    0.08    0.31
  C11                  CONDUIT    103.88     0  00:36     15.87    0.33    0.40
  
  
  *************************
  Conduit Surcharge Summary
  *************************
  
  No conduits were surcharged.
  

  Analysis begun on:  Mon Nov  7 18:59:41 2022
  Analysis ended on:  Mon Nov  7 18:59:41 2022
  Total elapsed time: < 1 sec