
  EPA STORM WATER MANAGEMENT MODEL - VERSION 5.1 (Build 5.1.014)
  --------------------------------------------------------------

  Example 2 
  Surface Drainage System 
  
  
  *********************************************************
  NOTE: The summary statistics displayed in this report are
  based on results found at every computational time step,  
  not just on results from each reporting time step.
  *********************************************************
  
  ****************
  Analysis Options
  ****************
  Flow Units ............... CFS
  Process Models:
    Rainfall/Runoff ........ YES
    RDII ................... NO
    Snowmelt ............... NO
    Groundwater ............ NO
    Flow Routing ........... YES
    Ponding Allowed ........ NO
    Water Quality .......... NO
  Infiltration Method ...... HORTON
  Flow Routing Method ...... KINWAVE
  Starting Date ............ 01/01/2007 00:00:00
  Ending Date .............. 01/01/2007 12:00:00
  Antecedent Dry Days ...... 0.0
  Report Time Step ......... 00:01:00
  Wet Time Step ............ 00:01:00
  Dry Time Step ............ 01:00:00
  Routing Time Step ........ 15.00 sec
  
  
  **************************        Volume         Depth
  Runoff Quantity Continuity     acre-feet        inches
  **************************     ---------       -------
  Total Precipitation ......         8.843         3.669
  Evaporation Loss .........         0.000         0.000
  Infiltration Loss ........         3.792         1.573
  Surface Runoff ...........         4.236         1.758
  Final Storage ............         0.820         0.340
  Continuity Error (%) .....        -0.060
  
  
  **************************        Volume        Volume
  Flow Routing Continuity        acre-feet      10^6 gal
  **************************     ---------     ---------
  Dry Weather Inflow .......         0.000         0.000
  Wet Weather Inflow .......         4.236         1.380
  Groundwater Inflow .......         0.000         0.000
  RDII Inflow ..............         0.000         0.000
  External Inflow ..........         0.000         0.000
  External Outflow .........         4.227         1.377
  Flooding Loss ............         0.020         0.007
  Evaporation Loss .........         0.000         0.000
  Exfiltration Loss ........         0.000         0.000
  Initial Stored Volume ....         0.000         0.000
  Final Stored Volume ......         0.000         0.000
  Continuity Error (%) .....        -0.255
  
  
  ********************************
  Highest Flow Instability Indexes
  ********************************
  All links are stable.
  
  
  *************************
  Routing Time Step Summary
  *************************
  Minimum Time Step           :    15.00 sec
  Average Time Step           :    15.00 sec
  Maximum Time Step           :    15.00 sec
  Percent in Steady State     :     0.00
  Average Iterations per Step :     1.10
  Percent Not Converging      :     0.00
  
  
  ***************************
  Subcatchment Runoff Summary
  ***************************
  
  ------------------------------------------------------------------------------------------------------------------------------
                            Total      Total      Total      Total     Imperv       Perv      Total       Total     Peak  Runoff
                           Precip      Runon       Evap      Infil     Runoff     Runoff     Runoff      Runoff   Runoff   Coeff
  Subcatchment                 in         in         in         in         in         in         in    10^6 gal      CFS
  ------------------------------------------------------------------------------------------------------------------------------
  S1                         3.67       0.00       0.00       1.59       1.75       0.00       1.75        0.22    25.43   0.476
  S2                         3.67       0.00       0.00       1.36       1.94       0.00       1.94        0.25    29.18   0.528
  S3                         3.67       0.00       0.00       2.22       1.22       0.00       1.22        0.12    14.79   0.331
  S4                         3.67       0.00       0.00       1.84       1.54       0.00       1.54        0.28    33.55   0.419
  S5                         3.67       0.00       0.00       0.45       2.70       0.00       2.70        0.35    39.84   0.735
  S6                         3.67       0.00       0.00       0.18       2.92       0.00       2.92        0.16    18.41   0.797
  S7                         3.67       0.00       0.00       3.67       0.00       0.00       0.00        0.00     0.00   0.000
  
  
  ******************
  Node Depth Summary
  ******************
  
  ---------------------------------------------------------------------------------
                                 Average  Maximum  Maximum  Time of Max    Reported
                                   Depth    Depth      HGL   Occurrence   Max Depth
  Node                 Type         Feet     Feet     Feet  days hr:min        Feet
  ---------------------------------------------------------------------------------
  J1                   JUNCTION     0.04     0.63  4973.63     0  00:35        0.63
  J2                   JUNCTION     0.10     0.98  4969.98     0  00:35        0.98
  J3                   JUNCTION     0.08     1.29  4974.29     0  00:35        1.29
  J4                   JUNCTION     0.08     1.29  4972.29     0  00:35        1.29
  J5                   JUNCTION     0.07     1.15  4970.95     0  00:35        1.14
  J6                   JUNCTION     0.14     2.35  4971.35     0  00:35        2.33
  J7                   JUNCTION     0.04     0.72  4972.22     0  00:35        0.72
  J8                   JUNCTION     0.14     2.34  4968.84     0  00:35        2.32
  J9                   JUNCTION     0.10     1.59  4966.39     0  00:35        1.58
  J10                  JUNCTION     0.12     1.65  4965.45     0  00:35        1.63
  J11                  JUNCTION     4.10     5.00  4968.00     0  00:35        5.00
  O1                   OUTFALL      0.25     4.10  4966.10     0  00:35        4.09
  
  
  *******************
  Node Inflow Summary
  *******************
  
  -------------------------------------------------------------------------------------------------
                                  Maximum  Maximum                  Lateral       Total        Flow
                                  Lateral    Total  Time of Max      Inflow      Inflow     Balance
                                   Inflow   Inflow   Occurrence      Volume      Volume       Error
  Node                 Type           CFS      CFS  days hr:min    10^6 gal    10^6 gal     Percent
  -------------------------------------------------------------------------------------------------
  J1                   JUNCTION     25.43    25.43     0  00:35       0.216       0.216       0.000
  J2                   JUNCTION     29.18    29.18     0  00:35        0.25        0.25       0.000
  J3                   JUNCTION     14.79    14.79     0  00:35       0.124       0.124       0.000
  J4                   JUNCTION      0.00    14.77     0  00:35           0       0.123       0.000
  J5                   JUNCTION      0.00    40.24     0  00:35           0       0.339       0.000
  J6                   JUNCTION      0.00    72.65     0  00:35           0       0.623       0.000
  J7                   JUNCTION     33.55    33.55     0  00:35       0.283       0.283       0.000
  J8                   JUNCTION      0.00    72.57     0  00:35           0       0.622       0.000
  J9                   JUNCTION      0.00    72.35     0  00:35           0       0.622       0.000
  J10                  JUNCTION     39.84   104.70     0  00:35       0.351       0.974      -0.000
  J11                  JUNCTION     18.41   145.82     0  00:35       0.157        1.38      -0.000
  O1                   OUTFALL       0.00   141.67     0  00:35           0        1.38       0.000
  
  
  *********************
  Node Flooding Summary
  *********************
  
  Flooding refers to all water that overflows a node, whether it ponds or not.
  --------------------------------------------------------------------------
                                                             Total   Maximum
                                 Maximum   Time of Max       Flood    Ponded
                        Hours       Rate    Occurrence      Volume    Volume
  Node                 Flooded       CFS   days hr:min    10^6 gal  1000 ft3
  --------------------------------------------------------------------------
  J11                     0.04      9.71      0  00:35       0.007     0.000
  
  
  ***********************
  Outfall Loading Summary
  ***********************
  
  -----------------------------------------------------------
                         Flow       Avg       Max       Total
                         Freq      Flow      Flow      Volume
  Outfall Node           Pcnt       CFS       CFS    10^6 gal
  -----------------------------------------------------------
  O1                    72.74      5.86    141.67       1.377
  -----------------------------------------------------------
  System                72.74      5.86    141.67       1.377
  
  
  ********************
  Link Flow Summary
  ********************
  
  -----------------------------------------------------------------------------
                                 Maximum  Time of Max   Maximum    Max/    Max/
                                  |Flow|   Occurrence   |Veloc|    Full    Full
  Link                 Type          CFS  days hr:min    ft/sec    Flow   Depth
  -----------------------------------------------------------------------------
  C1                   CONDUIT     25.46     0  00:35      5.12    0.04    0.21
  C2                   CONDUIT     27.62     0  00:36      2.70    0.91    0.94
  C3                   CONDUIT     14.77     0  00:35      6.43    0.62    0.57
  C4                   CONDUIT     14.78     0  00:35      3.51    0.03    0.19
  C5                   CONDUIT     40.24     0  00:36      3.47    0.12    0.38
  C6                   CONDUIT     33.38     0  00:35      5.57    0.05    0.24
  C7                   CONDUIT     72.57     0  00:35     10.63    0.79    0.67
  C8                   CONDUIT     72.35     0  00:35      5.53    0.13    0.40
  C9                   CONDUIT     71.80     0  00:36      3.73    0.23    0.52
  C10                  CONDUIT    103.87     0  00:35      4.80    0.26    0.55
  C11                  CONDUIT    141.67     0  00:35      8.88    1.04    0.93
  
  
  *************************
  Conduit Surcharge Summary
  *************************
  
  ----------------------------------------------------------------------------
                                                           Hours        Hours 
                         --------- Hours Full --------   Above Full   Capacity
  Conduit                Both Ends  Upstream  Dnstream   Normal Flow   Limited
  ----------------------------------------------------------------------------
  C11                         0.04      0.04      0.04      0.04         0.04
  

  Analysis begun on:  Mon Nov  7 19:19:29 2022
  Analysis ended on:  Mon Nov  7 19:19:29 2022
  Total elapsed time: < 1 sec